63
pp000002-PdCl2_spc_0002.log	Energy: -1625293.5133999
Cl        -1.89922       -2.88107       -0.17340
P         -1.60889        0.23701        0.00288
P          1.51989        0.20022        0.06719
C         -0.73785        1.86080        0.14944
C          0.67424        1.83599        0.27069
C         -2.90451        0.15826        1.36846
H         -2.92423       -0.93814        1.56010
C         -2.85992        0.38584       -1.40259
H         -2.87419        1.47413       -1.64115
C          2.78667        0.12019        1.47441
H          2.48715        0.90255        2.20444
C          2.78652        0.29006       -1.34041
H          2.45018       -0.49916       -2.04370
C         -4.22201        0.55358        0.67731
H         -5.08865        0.17510        1.25876
H         -4.31722        1.66279        0.65209
C         -4.19436       -0.01374       -0.74388
H         -5.05003        0.33769       -1.35679
H         -4.23788       -1.12229       -0.70052
C          4.11234        0.47752        0.76631
H          4.22258        1.58042        0.68027
H          4.97541        0.11923        1.36501
C          4.08401       -0.15460       -0.63175
H          4.07257       -1.26008       -0.54273
H          4.97170        0.12746       -1.23518
C         -2.59247        0.90901        2.66248
H         -2.53894        2.00070        2.45787
H         -3.46612        0.77507        3.33829
C         -2.52092       -0.41420       -2.66315
H         -3.38421       -0.31654       -3.35797
H         -2.45522       -1.48628       -2.37918
C          2.84566       -1.24214        2.18851
H          3.74724       -1.21703        2.83979
H          3.00700       -2.04307        1.43701
C          2.91962        1.62762       -2.08303
H          3.15761        2.44762       -1.37271
H          3.82062        1.53484       -2.72899
C         -1.31987        0.44507        3.36552
H         -1.17094        0.97545        4.32699
H         -0.42431        0.63030        2.73931
H         -1.34832       -0.64329        3.57337
C         -1.23505        0.01987       -3.35755
H         -0.36041       -0.15389       -2.69516
H         -1.06126       -0.56356       -4.28325
H         -1.24922        1.09652       -3.62870
C          1.61832       -1.59014        3.02297
H          1.41159       -0.82283        3.79817
H          1.75591       -2.56394        3.53282
H          0.71529       -1.68746        2.38264
C          1.72445        2.01557       -2.94988
H          1.51478        1.23606       -3.70962
H          0.80306        2.14813       -2.34974
H          1.91363        2.96801       -3.48419
C         -1.42209        3.09002        0.22625
H         -2.51715        3.11884        0.11836
C         -0.71709        4.28173        0.45156
H         -1.26013        5.23685        0.51104
C          0.67621        4.25086        0.62147
H          1.22899        5.18104        0.82120
C          1.36859        3.03437        0.53139
H          2.46034        3.02236        0.66648
Cl         1.66662       -2.92995       -0.60356
Pd        -0.06350       -1.36639       -0.13531
